BES/IEEE118.m
function mpc = IEEE118
mpc.version = "2";
mpc.baseMVA = 100.0;

%% bus data
%	bus_i type Pd Qd Gs Bs area Vm Va baseKV zone Vmax Vmin
mpc.bus = [
     1  1    51.000    27.000     0.000     0.000   1  1.0000  0.0000 138.000   1  1.100  0.900;
     2  1    20.000     9.000     0.000     0.000   1  1.0000  0.0000 138.000   1  1.100  0.900;
     3  1    39.000    10.000     0.000     0.000   1  1.0000  0.0000 138.000   1  1.100  0.900;
     4  1    39.000    12.000     0.000     0.000   1  1.0000  0.0000 138.000   1  1.100  0.900;
     5  1     0.000     0.000     0.000   -40.000   1  1.0000  0.0000 138.000   1  1.100  0.900;
     6  1    52.000    22.000     0.000     0.000   1  1.0000  0.0000 138.000   1  1.100  0.900;
     7  1    19.000     2.000     0.000     0.000   1  1.0000  0.0000 138.000   1  1.100  0.900;
     8  1    28.000     0.000     0.000     0.000   1  1.0000  0.0000 345.000   1  1.100  0.900;
     9  1     0.000     0.000     0.000     0.000   1  1.0000  0.0000 345.000   1  1.100  0.900;
    10  1     0.000     0.000     0.000     0.000   1  1.0000  0.0000 345.000   1  1.100  0.900;
    11  1    70.000    23.000     0.000     0.000   1  1.0000  0.0000 138.000   1  1.100  0.900;
    12  1    47.000    10.000     0.000     0.000   1  1.0000  0.0000 138.000   1  1.100  0.900;
    13  1    34.000    16.000     0.000     0.000   1  1.0000  0.0000 138.000   1  1.100  0.900;
    14  1    14.000     1.000     0.000     0.000   1  1.0000  0.0000 138.000   1  1.100  0.900;
    15  1    90.000    30.000     0.000     0.000   1  1.0000  0.0000 138.000   1  1.100  0.900;
    16  1    25.000    10.000     0.000     0.000   1  1.0000  0.0000 138.000   1  1.100  0.900;
    17  1    11.000     3.000     0.000     0.000   1  1.0000  0.0000 138.000   1  1.100  0.900;
    18  1    60.000    34.000     0.000     0.000   1  1.0000  0.0000 138.000   1  1.100  0.900;
    19  1    45.000    25.000     0.000     0.000   1  1.0000  0.0000 138.000   1  1.100  0.900;
    20  1    18.000     3.000     0.000     0.000   1  1.0000  0.0000 138.000   1  1.100  0.900;
    21  1    14.000     8.000     0.000     0.000   1  1.0000  0.0000 138.000   1  1.100  0.900;
    22  1    10.000     5.000     0.000     0.000   1  1.0000  0.0000 138.000   1  1.100  0.900;
    23  1     7.000     3.000     0.000     0.000   1  1.0000  0.0000 138.000   1  1.100  0.900;
    24  1    13.000     0.000     0.000     0.000   1  1.0000  0.0000 138.000   1  1.100  0.900;
    25  1     0.000     0.000     0.000     0.000   1  1.0000  0.0000 138.000   1  1.100  0.900;
    26  1     0.000     0.000     0.000     0.000   1  1.0000  0.0000 345.000   1  1.100  0.900;
    27  1    71.000    13.000     0.000     0.000   1  1.0000  0.0000 138.000   1  1.100  0.900;
    28  1    17.000     7.000     0.000     0.000   1  1.0000  0.0000 138.000   1  1.100  0.900;
    29  1    24.000     4.000     0.000     0.000   1  1.0000  0.0000 138.000   1  1.100  0.900;
    30  1     0.000     0.000     0.000     0.000   1  1.0000  0.0000 345.000   1  1.100  0.900;
    31  1    43.000    27.000     0.000     0.000   1  1.0000  0.0000 138.000   1  1.100  0.900;
    32  1    59.000    23.000     0.000     0.000   1  1.0000  0.0000 138.000   1  1.100  0.900;
    33  1    23.000     9.000     0.000     0.000   1  1.0000  0.0000 138.000   1  1.100  0.900;
    34  1    59.000    26.000     0.000    14.000   1  1.0000  0.0000 138.000   1  1.100  0.900;
    35  1    33.000     9.000     0.000     0.000   1  1.0000  0.0000 138.000   1  1.100  0.900;
    36  1    31.000    17.000     0.000     0.000   1  1.0000  0.0000 138.000   1  1.100  0.900;
    37  1     0.000     0.000     0.000   -25.000   1  1.0000  0.0000 138.000   1  1.100  0.900;
    38  1     0.000     0.000     0.000     0.000   1  1.0000  0.0000 345.000   1  1.100  0.900;
    39  1    27.000    11.000     0.000     0.000   1  1.0000  0.0000 138.000   1  1.100  0.900;
    40  1    66.000    23.000     0.000     0.000   1  1.0000  0.0000 138.000   1  1.100  0.900;
    41  1    37.000    10.000     0.000     0.000   1  1.0000  0.0000 138.000   1  1.100  0.900;
    42  1    96.000    23.000     0.000     0.000   1  1.0000  0.0000 138.000   1  1.100  0.900;
    43  1    18.000     7.000     0.000     0.000   1  1.0000  0.0000 138.000   1  1.100  0.900;
    44  1    16.000     8.000     0.000    10.000   1  1.0000  0.0000 138.000   1  1.100  0.900;
    45  1    53.000    22.000     0.000    10.000   1  1.0000  0.0000 138.000   1  1.100  0.900;
    46  1    28.000    10.000     0.000    10.000   1  1.0000  0.0000 138.000   1  1.100  0.900;
    47  1    34.000     0.000     0.000     0.000   1  1.0000  0.0000 138.000   1  1.100  0.900;
    48  1    20.000    11.000     0.000    15.000   1  1.0000  0.0000 138.000   1  1.100  0.900;
    49  1    87.000    30.000     0.000     0.000   1  1.0000  0.0000 138.000   1  1.100  0.900;
    50  1    17.000     4.000     0.000     0.000   1  1.0000  0.0000 138.000   1  1.100  0.900;
    51  1    17.000     8.000     0.000     0.000   1  1.0000  0.0000 138.000   1  1.100  0.900;
    52  1    18.000     5.000     0.000     0.000   1  1.0000  0.0000 138.000   1  1.100  0.900;
    53  1    23.000    11.000     0.000     0.000   1  1.0000  0.0000 138.000   1  1.100  0.900;
    54  1   113.000    32.000     0.000     0.000   1  1.0000  0.0000 138.000   1  1.100  0.900;
    55  1    63.000    22.000     0.000     0.000   1  1.0000  0.0000 138.000   1  1.100  0.900;
    56  1    84.000    18.000     0.000     0.000   1  1.0000  0.0000 138.000   1  1.100  0.900;
    57  1    12.000     3.000     0.000     0.000   1  1.0000  0.0000 138.000   1  1.100  0.900;
    58  1    12.000     3.000     0.000     0.000   1  1.0000  0.0000 138.000   1  1.100  0.900;
    59  1   277.000   113.000     0.000     0.000   1  1.0000  0.0000 138.000   1  1.100  0.900;
    60  1    78.000     3.000     0.000     0.000   1  1.0000  0.0000 138.000   1  1.100  0.900;
    61  1     0.000     0.000     0.000     0.000   1  1.0000  0.0000 138.000   1  1.100  0.900;
    62  1    77.000    14.000     0.000     0.000   1  1.0000  0.0000 138.000   1  1.100  0.900;
    63  1     0.000     0.000     0.000     0.000   1  1.0000  0.0000 345.000   1  1.100  0.900;
    64  1     0.000     0.000     0.000     0.000   1  1.0000  0.0000 345.000   1  1.100  0.900;
    65  1     0.000     0.000     0.000     0.000   1  1.0000  0.0000 345.000   1  1.100  0.900;
    66  1    39.000    18.000     0.000     0.000   1  1.0000  0.0000 138.000   1  1.100  0.900;
    67  1    28.000     7.000     0.000     0.000   1  1.0000  0.0000 138.000   1  1.100  0.900;
    68  1     0.000     0.000     0.000     0.000   1  1.0000  0.0000 345.000   1  1.100  0.900;
    69  1     0.000     0.000     0.000     0.000   1  1.0000  0.0000 138.000   1  1.100  0.900;
    70  1    66.000    20.000     0.000     0.000   1  1.0000  0.0000 138.000   1  1.100  0.900;
    71  1     0.000     0.000     0.000     0.000   1  1.0000  0.0000 138.000   1  1.100  0.900;
    72  1    12.000     0.000     0.000     0.000   1  1.0000  0.0000 138.000   1  1.100  0.900;
    73  1     6.000     0.000     0.000     0.000   1  1.0000  0.0000 138.000   1  1.100  0.900;
    74  1    68.000    27.000     0.000    12.000   1  1.0000  0.0000 138.000   1  1.100  0.900;
    75  1    47.000    11.000     0.000     0.000   1  1.0000  0.0000 138.000   1  1.100  0.900;
    76  1    68.000    36.000     0.000     0.000   1  1.0000  0.0000 138.000   1  1.100  0.900;
    77  1    61.000    28.000     0.000     0.000   1  1.0000  0.0000 138.000   1  1.100  0.900;
    78  1    71.000    26.000     0.000     0.000   1  1.0000  0.0000 138.000   1  1.100  0.900;
    79  1    39.000    32.000     0.000    20.000   1  1.0000  0.0000 138.000   1  1.100  0.900;
    80  1   130.000    26.000     0.000     0.000   1  1.0000  0.0000 138.000   1  1.100  0.900;
    81  1     0.000     0.000     0.000     0.000   1  1.0000  0.0000 345.000   1  1.100  0.900;
    82  1    54.000    27.000     0.000    20.000   1  1.0000  0.0000 138.000   1  1.100  0.900;
    83  1    20.000    10.000     0.000    10.000   1  1.0000  0.0000 138.000   1  1.100  0.900;
    84  1    11.000     7.000     0.000     0.000   1  1.0000  0.0000 138.000   1  1.100  0.900;
    85  1    24.000    15.000     0.000     0.000   1  1.0000  0.0000 138.000   1  1.100  0.900;
    86  1    21.000    10.000     0.000     0.000   1  1.0000  0.0000 138.000   1  1.100  0.900;
    87  1     0.000     0.000     0.000     0.000   1  1.0000  0.0000 138.000   1  1.100  0.900;
    88  1    48.000    10.000     0.000     0.000   1  1.0000  0.0000 138.000   1  1.100  0.900;
    89  1     0.000     0.000     0.000     0.000   1  1.0000  0.0000 138.000   1  1.100  0.900;
    90  1   163.000    42.000     0.000     0.000   1  1.0000  0.0000 138.000   1  1.100  0.900;
    91  1    10.000     0.000     0.000     0.000   1  1.0000  0.0000 138.000   1  1.100  0.900;
    92  1    65.000    10.000     0.000     0.000   1  1.0000  0.0000 138.000   1  1.100  0.900;
    93  1    12.000     7.000     0.000     0.000   1  1.0000  0.0000 138.000   1  1.100  0.900;
    94  1    30.000    16.000     0.000     0.000   1  1.0000  0.0000 138.000   1  1.100  0.900;
    95  1    42.000    31.000     0.000     0.000   1  1.0000  0.0000 138.000   1  1.100  0.900;
    96  1    38.000    15.000     0.000     0.000   1  1.0000  0.0000 138.000   1  1.100  0.900;
    97  1    15.000     9.000     0.000     0.000   1  1.0000  0.0000 138.000   1  1.100  0.900;
    98  1    34.000     8.000     0.000     0.000   1  1.0000  0.0000 138.000   1  1.100  0.900;
    99  1    42.000     0.000     0.000     0.000   1  1.0000  0.0000 138.000   1  1.100  0.900;
   100  1    37.000    18.000     0.000     0.000   1  1.0000  0.0000 138.000   1  1.100  0.900;
   101  1    22.000    15.000     0.000     0.000   1  1.0000  0.0000 138.000   1  1.100  0.900;
   102  1     5.000     3.000     0.000     0.000   1  1.0000  0.0000 138.000   1  1.100  0.900;
   103  1    23.000    16.000     0.000     0.000   1  1.0000  0.0000 138.000   1  1.100  0.900;
   104  1    38.000    25.000     0.000     0.000   1  1.0000  0.0000 138.000   1  1.100  0.900;
   105  1    31.000    26.000     0.000    20.000   1  1.0000  0.0000 138.000   1  1.100  0.900;
   106  1    43.000    16.000     0.000     0.000   1  1.0000  0.0000 138.000   1  1.100  0.900;
   107  1    50.000    12.000     0.000     6.000   1  1.0000  0.0000 138.000   1  1.100  0.900;
   108  1     2.000     1.000     0.000     0.000   1  1.0000  0.0000 138.000   1  1.100  0.900;
   109  1     8.000     3.000     0.000     0.000   1  1.0000  0.0000 138.000   1  1.100  0.900;
   110  1    39.000    30.000     0.000     6.000   1  1.0000  0.0000 138.000   1  1.100  0.900;
   111  1     0.000     0.000     0.000     0.000   1  1.0000  0.0000 138.000   1  1.100  0.900;
   112  1    68.000    13.000     0.000     0.000   1  1.0000  0.0000 138.000   1  1.100  0.900;
   113  1     6.000     0.000     0.000     0.000   1  1.0000  0.0000 138.000   1  1.100  0.900;
   114  1     8.000     3.000     0.000     0.000   1  1.0000  0.0000 138.000   1  1.100  0.900;
   115  1    22.000     7.000     0.000     0.000   1  1.0000  0.0000 138.000   1  1.100  0.900;
   116  1   184.000     0.000     0.000     0.000   1  1.0000  0.0000 138.000   1  1.100  0.900;
   117  1    20.000     8.000     0.000     0.000   1  1.0000  0.0000 138.000   1  1.100  0.900;
   118  1    33.000    15.000     0.000     0.000   1  1.0000  0.0000 138.000   1  1.100  0.900;
   119  2     0.000     0.000     0.000     0.000   1  1.0000  0.0000  13.800   1  1.100  0.900;
   120  2     0.000     0.000     0.000     0.000   1  1.0000  0.0000  13.800   1  1.100  0.900;
   121  2     0.000     0.000     0.000     0.000   1  1.0000  0.0000  13.800   1  1.100  0.900;
   122  2     0.000     0.000     0.000     0.000   1  1.0000  0.0000  13.800   1  1.100  0.900;
   123  2     0.000     0.000     0.000     0.000   1  1.0000  0.0000  13.800   1  1.100  0.900;
   124  2     0.000     0.000     0.000     0.000   1  1.0000  0.0000  13.800   1  1.100  0.900;
   125  2     0.000     0.000     0.000     0.000   1  1.0000  0.0000  13.800   1  1.100  0.900;
   126  2     0.000     0.000     0.000     0.000   1  1.0000  0.0000  13.800   1  1.100  0.900;
   127  2     0.000     0.000     0.000     0.000   1  1.0000  0.0000  13.800   1  1.100  0.900;
   128  2     0.000     0.000     0.000     0.000   1  1.0000  0.0000  13.800   1  1.100  0.900;
   129  2     0.000     0.000     0.000     0.000   1  1.0000  0.0000  13.800   1  1.100  0.900;
   130  2     0.000     0.000     0.000     0.000   1  1.0000  0.0000  13.800   1  1.100  0.900;
   131  3     0.000     0.000     0.000     0.000   1  1.0000  0.0000  13.800   1  1.100  0.900;
   132  2     0.000     0.000     0.000     0.000   1  1.0000  0.0000  13.800   1  1.100  0.900;
   133  2     0.000     0.000     0.000     0.000   1  1.0000  0.0000  13.800   1  1.100  0.900;
   134  2     0.000     0.000     0.000     0.000   1  1.0000  0.0000  13.800   1  1.100  0.900;
   135  2     0.000     0.000     0.000     0.000   1  1.0000  0.0000  13.800   1  1.100  0.900;
   136  2     0.000     0.000     0.000     0.000   1  1.0000  0.0000  13.800   1  1.100  0.900;
   137  2     0.000     0.000     0.000     0.000   1  1.0000  0.0000  13.800   1  1.100  0.900;
   138  2     0.000     0.000     0.000     0.000   1  1.0000  0.0000  13.800   1  1.100  0.900;
   139  2     0.000     0.000     0.000     0.000   1  1.0000  0.0000  13.800   1  1.100  0.900;
   140  2     0.000     0.000     0.000     0.000   1  1.0000  0.0000  13.800   1  1.100  0.900;
   141  2     0.000     0.000     0.000     0.000   1  1.0000  0.0000  13.800   1  1.100  0.900;
   142  2     0.000     0.000     0.000     0.000   1  1.0000  0.0000  13.800   1  1.100  0.900;
   143  2     0.000     0.000     0.000     0.000   1  1.0000  0.0000  13.800   1  1.100  0.900;
   144  2     0.000     0.000     0.000     0.000   1  1.0000  0.0000  13.800   1  1.100  0.900;
   145  2     0.000     0.000     0.000     0.000   1  1.0000  0.0000  13.800   1  1.100  0.900;
   146  2     0.000     0.000     0.000     0.000   1  1.0000  0.0000  13.800   1  1.100  0.900;
   147  2     0.000     0.000     0.000     0.000   1  1.0000  0.0000  13.800   1  1.100  0.900;
   148  2     0.000     0.000     0.000     0.000   1  1.0000  0.0000  13.800   1  1.100  0.900;
   149  2     0.000     0.000     0.000     0.000   1  1.0000  0.0000  13.800   1  1.100  0.900;
   150  2     0.000     0.000     0.000     0.000   1  1.0000  0.0000  13.800   1  1.100  0.900;
   151  2     0.000     0.000     0.000     0.000   1  1.0000  0.0000  13.800   1  1.100  0.900;
   152  2     0.000     0.000     0.000     0.000   1  1.0000  0.0000  13.800   1  1.100  0.900;
   153  2     0.000     0.000     0.000     0.000   1  1.0000  0.0000  13.800   1  1.100  0.900;
   154  2     0.000     0.000     0.000     0.000   1  1.0000  0.0000  13.800   1  1.100  0.900;
   155  2     0.000     0.000     0.000     0.000   1  1.0000  0.0000  13.800   1  1.100  0.900;
   156  2     0.000     0.000     0.000     0.000   1  1.0000  0.0000  13.800   1  1.100  0.900;
   157  2     0.000     0.000     0.000     0.000   1  1.0000  0.0000  13.800   1  1.100  0.900;
   158  2     0.000     0.000     0.000     0.000   1  1.0000  0.0000  13.800   1  1.100  0.900;
   159  2     0.000     0.000     0.000     0.000   1  1.0000  0.0000  13.800   1  1.100  0.900;
   160  2     0.000     0.000     0.000     0.000   1  1.0000  0.0000  13.800   1  1.100  0.900;
   161  2     0.000     0.000     0.000     0.000   1  1.0000  0.0000  13.800   1  1.100  0.900;
   162  2     0.000     0.000     0.000     0.000   1  1.0000  0.0000  13.800   1  1.100  0.900;
   163  2     0.000     0.000     0.000     0.000   1  1.0000  0.0000  13.800   1  1.100  0.900;
   164  2     0.000     0.000     0.000     0.000   1  1.0000  0.0000  13.800   1  1.100  0.900;
   165  2     0.000     0.000     0.000     0.000   1  1.0000  0.0000  13.800   1  1.100  0.900;
   166  2     0.000     0.000     0.000     0.000   1  1.0000  0.0000  13.800   1  1.100  0.900;
   167  2     0.000     0.000     0.000     0.000   1  1.0000  0.0000  13.800   1  1.100  0.900;
   168  2     0.000     0.000     0.000     0.000   1  1.0000  0.0000  13.800   1  1.100  0.900;
   169  2     0.000     0.000     0.000     0.000   1  1.0000  0.0000  13.800   1  1.100  0.900;
   170  2     0.000     0.000     0.000     0.000   1  1.0000  0.0000  13.800   1  1.100  0.900;
   171  2     0.000     0.000     0.000     0.000   1  1.0000  0.0000  13.800   1  1.100  0.900;
   172  2     0.000     0.000     0.000     0.000   1  1.0000  0.0000  13.800   1  1.100  0.900;
   173  2     0.000     0.000     0.000     0.000   1  1.0000  0.0000  13.800   1  1.100  0.900;
   174  2     0.000     0.000     0.000     0.000   1  1.0000  0.0000  13.800   1  1.100  0.900;
   175  2     0.000     0.000     0.000     0.000   1  1.0000  0.0000  13.800   1  1.100  0.900;
   176  2     0.000     0.000     0.000     0.000   1  1.0000  0.0000  13.800   1  1.100  0.900;
   177  2     0.000     0.000     0.000     0.000   1  1.0000  0.0000  13.800   1  1.100  0.900;
   178  2     0.000     0.000     0.000     0.000   1  1.0000  0.0000  13.800   1  1.100  0.900;
   179  2     0.000     0.000     0.000     0.000   1  1.0000  0.0000  13.800   1  1.100  0.900;
   180  2     0.000     0.000     0.000     0.000   1  1.0000  0.0000  13.800   1  1.100  0.900;
   181  2     0.000     0.000     0.000     0.000   1  1.0000  0.0000  13.800   1  1.100  0.900;
   182  2     0.000     0.000     0.000     0.000   1  1.0000  0.0000  13.800   1  1.100  0.900;
   183  2     0.000     0.000     0.000     0.000   1  1.0000  0.0000  13.800   1  1.100  0.900;
   184  2     0.000     0.000     0.000     0.000   1  1.0000  0.0000  13.800   1  1.100  0.900;
   185  2     0.000     0.000     0.000     0.000   1  1.0000  0.0000  13.800   1  1.100  0.900;
   186  2     0.000     0.000     0.000     0.000   1  1.0000  0.0000  13.800   1  1.100  0.900;
   187  2     0.000     0.000     0.000     0.000   1  1.0000  0.0000  13.800   1  1.100  0.900;
   188  2     0.000     0.000     0.000     0.000   1  1.0000  0.0000  13.800   1  1.100  0.900;
   189  2     0.000     0.000     0.000     0.000   1  1.0000  0.0000  13.800   1  1.100  0.900;
   190  2     0.000     0.000     0.000     0.000   1  1.0000  0.0000  13.800   1  1.100  0.900;
   191  2     0.000     0.000     0.000     0.000   1  1.0000  0.0000  13.800   1  1.100  0.900;
   192  2     0.000     0.000     0.000     0.000   1  1.0000  0.0000  13.800   1  1.100  0.900;
   193  2     0.000     0.000     0.000     0.000   1  1.0000  0.0000  13.800   1  1.100  0.900;
];

%% generator data - BESMachine+BESSolar+BESWind
%	bus Pg Qg Qmax Qmin Vg mBase status Pmax Pmin Pc1 Pc2 Qc1min Qc1max Qc2min Qc2max ramp_agc ramp_10 ramp_30 ramp_q apf
mpc.gen = [
   119    0.000   -3.104   48.000  -15.000 1.0000  115.000 1  115.000    0.000 0.0 0.0 0.0 0.0 0.0 0.0 0.0 0.0 0.0 0.0 0.0;
   120    0.000  -15.005  100.000 -100.000 1.0000  115.000 1  115.000    0.000 0.0 0.0 0.0 0.0 0.0 0.0 0.0 0.0 0.0 0.0 0.0;
   121    0.000   15.930   50.000  -13.000 1.0000  115.000 1  115.000    0.000 0.0 0.0 0.0 0.0 0.0 0.0 0.0 0.0 0.0 0.0 0.0;
   122    0.000   62.758   35.700  -35.700 1.0000   42.000 1   42.000    0.000 0.0 0.0 0.0 0.0 0.0 0.0 0.0 0.0 0.0 0.0 0.0;
   123  210.800  -51.042  100.000  -73.500 1.0000  248.000 1  248.000    0.000 0.0 0.0 0.0 0.0 0.0 0.0 0.0 0.0 0.0 0.0 0.0;
   124   20.000   91.274   12.500   -8.800 1.0000   23.500 1   23.500    0.000 0.0 0.0 0.0 0.0 0.0 0.0 0.0 0.0 0.0 0.0 0.0;
   125    0.000    3.060   30.000  -10.000 1.0000  115.000 1  115.000    0.000 0.0 0.0 0.0 0.0 0.0 0.0 0.0 0.0 0.0 0.0 0.0;
   127    0.000   25.532   50.000  -16.000 1.0000  115.000 1  115.000    0.000 0.0 0.0 0.0 0.0 0.0 0.0 0.0 0.0 0.0 0.0 0.0;
   129    0.000   -8.000   24.000   -8.000 1.0000  115.000 1  115.000    0.000 0.0 0.0 0.0 0.0 0.0 0.0 0.0 0.0 0.0 0.0 0.0;
   131    0.000  -15.282   42.500  -42.500 1.0000  470.000 1  470.000    0.000 0.0 0.0 0.0 0.0 0.0 0.0 0.0 0.0 0.0 0.0 0.0;
   133  182.800   49.798  110.000  -47.000 1.0000  215.000 1  215.000    0.000 0.0 0.0 0.0 0.0 0.0 0.0 0.0 0.0 0.0 0.0 0.0;
   134  130.000    9.905   80.000  -80.000 1.0000  153.000 1  153.000    0.000 0.0 0.0 0.0 0.0 0.0 0.0 0.0 0.0 0.0 0.0 0.0;
   135    0.000    2.831  300.000 -300.000 1.0000  440.000 1  440.000    0.000 0.0 0.0 0.0 0.0 0.0 0.0 0.0 0.0 0.0 0.0 0.0;
   137    7.000   31.976    4.000   -4.000 1.0000    8.000 1    8.000    0.000 0.0 0.0 0.0 0.0 0.0 0.0 0.0 0.0 0.0 0.0 0.0;
   139    0.000  -14.000   42.000  -14.000 1.0000  115.000 1  115.000    0.000 0.0 0.0 0.0 0.0 0.0 0.0 0.0 0.0 0.0 0.0 0.0;
   141    0.000   -8.000   24.000   -8.000 1.0000  115.000 1  115.000    0.000 0.0 0.0 0.0 0.0 0.0 0.0 0.0 0.0 0.0 0.0 0.0;
   142    0.000   -1.252   24.000   -8.000 1.0000  115.000 1  115.000    0.000 0.0 0.0 0.0 0.0 0.0 0.0 0.0 0.0 0.0 0.0 0.0;
   143    0.000   26.886  100.000 -100.000 1.0000  115.000 1  115.000    0.000 0.0 0.0 0.0 0.0 0.0 0.0 0.0 0.0 0.0 0.0 0.0;
   144    0.000   41.004   29.800  -29.800 1.0000   35.000 1   35.000    0.000 0.0 0.0 0.0 0.0 0.0 0.0 0.0 0.0 0.0 0.0 0.0;
   145    9.300   -5.231    6.000   -4.000 1.0000   10.900 1   10.900    0.000 0.0 0.0 0.0 0.0 0.0 0.0 0.0 0.0 0.0 0.0 0.0;
   146  106.500  115.647   90.000  -45.000 1.0000  150.000 1  150.000    0.000 0.0 0.0 0.0 0.0 0.0 0.0 0.0 0.0 0.0 0.0 0.0;
   147   34.000    3.902   20.000  -20.000 1.0000   40.000 1   40.000    0.000 0.0 0.0 0.0 0.0 0.0 0.0 0.0 0.0 0.0 0.0 0.0;
   148   35.000    3.902   20.000  -20.000 1.0000   40.000 1   40.000    0.000 0.0 0.0 0.0 0.0 0.0 0.0 0.0 0.0 0.0 0.0 0.0;
   150    0.000    4.664   23.000   -8.000 1.0000  115.000 1  115.000    0.000 0.0 0.0 0.0 0.0 0.0 0.0 0.0 0.0 0.0 0.0 0.0;
   152    0.000   -2.286   15.000   -8.000 1.0000   20.000 1   20.000    0.000 0.0 0.0 0.0 0.0 0.0 0.0 0.0 0.0 0.0 0.0 0.0;
   153   95.000   76.834   65.000  -30.000 1.0000  115.000 1  115.000    0.000 0.0 0.0 0.0 0.0 0.0 0.0 0.0 0.0 0.0 0.0 0.0;
   154  200.000  -40.394  130.000 -100.000 1.0000  238.000 1  238.000    0.000 0.0 0.0 0.0 0.0 0.0 0.0 0.0 0.0 0.0 0.0 0.0;
   155    0.000    1.259   50.000  -50.000 1.0000  115.000 1  115.000    0.000 0.0 0.0 0.0 0.0 0.0 0.0 0.0 0.0 0.0 0.0 0.0;
   156  187.000   80.812  100.000  -33.500 1.0000  220.000 1  220.000    0.000 0.0 0.0 0.0 0.0 0.0 0.0 0.0 0.0 0.0 0.0 0.0;
   157  196.000   -1.951  100.000  -33.500 1.0000  238.000 1  238.000    0.000 0.0 0.0 0.0 0.0 0.0 0.0 0.0 0.0 0.0 0.0 0.0;
   158  513.388  -82.378  300.000 -300.000 1.0000  153.000 1  153.000    0.000 0.0 0.0 0.0 0.0 0.0 0.0 0.0 0.0 0.0 0.0 0.0;
   160    0.000    9.664   32.000  -10.000 1.0000  115.000 1  115.000    0.000 0.0 0.0 0.0 0.0 0.0 0.0 0.0 0.0 0.0 0.0 0.0;
   161    0.000  -11.130  100.000 -100.000 1.0000  110.000 1  110.000    0.000 0.0 0.0 0.0 0.0 0.0 0.0 0.0 0.0 0.0 0.0 0.0;
   162    0.000    9.651  100.000 -100.000 1.0000  115.000 1  115.000    0.000 0.0 0.0 0.0 0.0 0.0 0.0 0.0 0.0 0.0 0.0 0.0;
   163    0.000   -5.628    9.000   -6.000 1.0000  115.000 1  115.000    0.000 0.0 0.0 0.0 0.0 0.0 0.0 0.0 0.0 0.0 0.0 0.0;
   164    0.000    5.269   50.000  -50.000 1.0000  115.000 1  115.000    0.000 0.0 0.0 0.0 0.0 0.0 0.0 0.0 0.0 0.0 0.0 0.0;
   166    0.000   11.943   70.000  -20.000 1.0000  115.000 1  115.000    0.000 0.0 0.0 0.0 0.0 0.0 0.0 0.0 0.0 0.0 0.0 0.0;
   167  137.700  105.050  140.000  -82.500 1.0000  162.000 1  162.000    0.000 0.0 0.0 0.0 0.0 0.0 0.0 0.0 0.0 0.0 0.0 0.0;
   169    0.000   -5.768   23.000   -8.000 1.0000  115.000 1  115.000    0.000 0.0 0.0 0.0 0.0 0.0 0.0 0.0 0.0 0.0 0.0 0.0;
   170   10.000   11.022    7.500   -5.000 1.0000   12.500 1   12.500    0.000 0.0 0.0 0.0 0.0 0.0 0.0 0.0 0.0 0.0 0.0 0.0;
   171  202.000  -11.794  100.000  -70.000 1.0000  238.000 1  238.000    0.000 0.0 0.0 0.0 0.0 0.0 0.0 0.0 0.0 0.0 0.0 0.0;
   172    0.000   59.300   32.700  -32.700 1.0000   38.500 1   38.500    0.000 0.0 0.0 0.0 0.0 0.0 0.0 0.0 0.0 0.0 0.0 0.0;
   173    0.000  -14.847   29.800  -29.800 1.0000   35.000 1   35.000    0.000 0.0 0.0 0.0 0.0 0.0 0.0 0.0 0.0 0.0 0.0 0.0;
   174    0.000   -3.000   21.000   -3.000 1.0000  115.000 1  115.000    0.000 0.0 0.0 0.0 0.0 0.0 0.0 0.0 0.0 0.0 0.0 0.0;
   176    0.000  -17.537  100.000 -100.000 1.0000  115.000 1  115.000    0.000 0.0 0.0 0.0 0.0 0.0 0.0 0.0 0.0 0.0 0.0 0.0;
   177   85.000  110.058   50.000  -25.000 1.0000  100.000 1  100.000    0.000 0.0 0.0 0.0 0.0 0.0 0.0 0.0 0.0 0.0 0.0 0.0;
   178  200.000  110.058  130.000  -90.000 1.0000  238.000 1  238.000    0.000 0.0 0.0 0.0 0.0 0.0 0.0 0.0 0.0 0.0 0.0 0.0;
   181   60.000   40.000   40.000  -15.000 1.0000   75.000 1   75.000    0.000 0.0 0.0 0.0 0.0 0.0 0.0 0.0 0.0 0.0 0.0 0.0;
   182    0.000    5.643   23.000   -8.000 1.0000  115.000 1  115.000    0.000 0.0 0.0 0.0 0.0 0.0 0.0 0.0 0.0 0.0 0.0 0.0;
   184    0.000   -8.000   23.000   -8.000 1.0000  115.000 1  115.000    0.000 0.0 0.0 0.0 0.0 0.0 0.0 0.0 0.0 0.0 0.0 0.0;
   186    0.000    5.694   10.600  -10.600 1.0000   12.500 1   12.500    0.000 0.0 0.0 0.0 0.0 0.0 0.0 0.0 0.0 0.0 0.0 0.0;
   187    0.000    4.854   23.000   -8.000 1.0000  115.000 1  115.000    0.000 0.0 0.0 0.0 0.0 0.0 0.0 0.0 0.0 0.0 0.0 0.0;
   189   57.000   -1.844   35.000  -30.000 1.0000   67.000 1   67.000    0.000 0.0 0.0 0.0 0.0 0.0 0.0 0.0 0.0 0.0 0.0 0.0;
   190    0.000   41.512    8.500   -8.500 1.0000   10.000 1   10.000    0.000 0.0 0.0 0.0 0.0 0.0 0.0 0.0 0.0 0.0 0.0 0.0;
   192    0.000    6.323    5.000   -5.000 1.0000    6.000 1    6.000    0.000 0.0 0.0 0.0 0.0 0.0 0.0 0.0 0.0 0.0 0.0 0.0;
   193  184.000   51.324  184.400 -184.400 1.0000  217.000 1  217.000    0.000 0.0 0.0 0.0 0.0 0.0 0.0 0.0 0.0 0.0 0.0 0.0;
   126    0.000    0.000    0.000    0.000 1.0000   53.600 1   53.600    0.000 0.0 0.0 0.0 0.0 0.0 0.0 0.0 0.0 0.0 0.0 0.0;
   128    0.000    0.000    0.000    0.000 1.0000   73.200 1   73.200    0.000 0.0 0.0 0.0 0.0 0.0 0.0 0.0 0.0 0.0 0.0 0.0;
   130    0.000    0.000    0.000    0.000 1.0000   49.600 1   49.600    0.000 0.0 0.0 0.0 0.0 0.0 0.0 0.0 0.0 0.0 0.0 0.0;
   140    0.000    0.000    0.000    0.000 1.0000  300.000 1  300.000    0.000 0.0 0.0 0.0 0.0 0.0 0.0 0.0 0.0 0.0 0.0 0.0;
   149    0.000    0.000    0.000    0.000 1.0000  105.600 1  105.600    0.000 0.0 0.0 0.0 0.0 0.0 0.0 0.0 0.0 0.0 0.0 0.0;
   151    0.000    0.000    0.000    0.000 1.0000   12.000 1   12.000    0.000 0.0 0.0 0.0 0.0 0.0 0.0 0.0 0.0 0.0 0.0 0.0;
   159    0.000    0.000    0.000    0.000 1.0000   49.600 1   49.600    0.000 0.0 0.0 0.0 0.0 0.0 0.0 0.0 0.0 0.0 0.0 0.0;
   165    0.000    0.000    0.000    0.000 1.0000   10.000 1   10.000    0.000 0.0 0.0 0.0 0.0 0.0 0.0 0.0 0.0 0.0 0.0 0.0;
   175    0.000    0.000    0.000    0.000 1.0000  207.600 1  207.600    0.000 0.0 0.0 0.0 0.0 0.0 0.0 0.0 0.0 0.0 0.0 0.0;
   179    0.000    0.000    0.000    0.000 1.0000   41.600 1   41.600    0.000 0.0 0.0 0.0 0.0 0.0 0.0 0.0 0.0 0.0 0.0 0.0;
   183    0.000    0.000    0.000    0.000 1.0000  186.400 1  186.400    0.000 0.0 0.0 0.0 0.0 0.0 0.0 0.0 0.0 0.0 0.0 0.0;
   185    0.000    0.000    0.000    0.000 1.0000  108.800 1  108.800    0.000 0.0 0.0 0.0 0.0 0.0 0.0 0.0 0.0 0.0 0.0 0.0;
   188    0.000    0.000    0.000    0.000 1.0000  101.200 1  101.200    0.000 0.0 0.0 0.0 0.0 0.0 0.0 0.0 0.0 0.0 0.0 0.0;
   191    0.000    0.000    0.000    0.000 1.0000   65.200 1   65.200    0.000 0.0 0.0 0.0 0.0 0.0 0.0 0.0 0.0 0.0 0.0 0.0;
   132    0.000    0.000    0.000    0.000 1.0000   26.000 1   26.000    0.000 0.0 0.0 0.0 0.0 0.0 0.0 0.0 0.0 0.0 0.0 0.0;
   136    0.000    0.000    0.000    0.000 1.0000   41.600 1   41.600    0.000 0.0 0.0 0.0 0.0 0.0 0.0 0.0 0.0 0.0 0.0 0.0;
   138    0.000    0.000    0.000    0.000 1.0000   62.000 1   62.000    0.000 0.0 0.0 0.0 0.0 0.0 0.0 0.0 0.0 0.0 0.0 0.0;
   168    0.000    0.000    0.000    0.000 1.0000  139.200 1  139.200    0.000 0.0 0.0 0.0 0.0 0.0 0.0 0.0 0.0 0.0 0.0 0.0;
   180    0.000    0.000    0.000    0.000 1.0000  160.000 1  160.000    0.000 0.0 0.0 0.0 0.0 0.0 0.0 0.0 0.0 0.0 0.0 0.0;
];

%% branch data - BESLine+BESCompSeries+collected transformers
%	fbus tbus r x b rateA rateB rateC ratio angle status angmin angmax
mpc.branch = [
   100   101  0.027700  0.126200  0.032800 0.0 0.0 0.0 0.0 0.0 1 0.0 0.0;
   100   103  0.016000  0.052500  0.053600 0.0 0.0 0.0 0.0 0.0 1 0.0 0.0;
   100   104  0.045100  0.204000  0.054100 0.0 0.0 0.0 0.0 0.0 1 0.0 0.0;
   100   106  0.060500  0.229000  0.062000 0.0 0.0 0.0 0.0 0.0 1 0.0 0.0;
   101   102  0.024600  0.112000  0.029400 0.0 0.0 0.0 0.0 0.0 1 0.0 0.0;
   103   104  0.046600  0.158400  0.040700 0.0 0.0 0.0 0.0 0.0 1 0.0 0.0;
   103   105  0.053500  0.162500  0.040800 0.0 0.0 0.0 0.0 0.0 1 0.0 0.0;
   103   110  0.039060  0.181300  0.046100 0.0 0.0 0.0 0.0 0.0 1 0.0 0.0;
   104   105  0.009940  0.037800  0.009860 0.0 0.0 0.0 0.0 0.0 1 0.0 0.0;
   105   106  0.014000  0.054700  0.014340 0.0 0.0 0.0 0.0 0.0 1 0.0 0.0;
   105   107  0.053000  0.183000  0.047200 0.0 0.0 0.0 0.0 0.0 1 0.0 0.0;
   105   108  0.026100  0.070300  0.018440 0.0 0.0 0.0 0.0 0.0 1 0.0 0.0;
   106   107  0.053000  0.183000  0.047200 0.0 0.0 0.0 0.0 0.0 1 0.0 0.0;
   108   109  0.010500  0.028800  0.007600 0.0 0.0 0.0 0.0 0.0 1 0.0 0.0;
   109   110  0.027800  0.076200  0.020200 0.0 0.0 0.0 0.0 0.0 1 0.0 0.0;
   110   111  0.022000  0.075500  0.020000 0.0 0.0 0.0 0.0 0.0 1 0.0 0.0;
   110   112  0.024700  0.064000  0.062000 0.0 0.0 0.0 0.0 0.0 1 0.0 0.0;
   114   115  0.002300  0.010400  0.002760 0.0 0.0 0.0 0.0 0.0 1 0.0 0.0;
    11    12  0.005950  0.019600  0.005020 0.0 0.0 0.0 0.0 0.0 1 0.0 0.0;
    11    13  0.022250  0.073100  0.018760 0.0 0.0 0.0 0.0 0.0 1 0.0 0.0;
    12   117  0.032900  0.140000  0.035800 0.0 0.0 0.0 0.0 0.0 1 0.0 0.0;
    12    14  0.021500  0.070700  0.018160 0.0 0.0 0.0 0.0 0.0 1 0.0 0.0;
    12    16  0.021200  0.083400  0.021400 0.0 0.0 0.0 0.0 0.0 1 0.0 0.0;
    13    15  0.074400  0.244400  0.062680 0.0 0.0 0.0 0.0 0.0 1 0.0 0.0;
    14    15  0.059500  0.195000  0.050200 0.0 0.0 0.0 0.0 0.0 1 0.0 0.0;
    15    17  0.013200  0.043700  0.044400 0.0 0.0 0.0 0.0 0.0 1 0.0 0.0;
    15    19  0.012000  0.039400  0.010100 0.0 0.0 0.0 0.0 0.0 1 0.0 0.0;
    15    33  0.038000  0.124400  0.031940 0.0 0.0 0.0 0.0 0.0 1 0.0 0.0;
    16    17  0.045400  0.180100  0.046600 0.0 0.0 0.0 0.0 0.0 1 0.0 0.0;
    17   113  0.009130  0.030100  0.007680 0.0 0.0 0.0 0.0 0.0 1 0.0 0.0;
    17    18  0.012300  0.050500  0.012980 0.0 0.0 0.0 0.0 0.0 1 0.0 0.0;
    17    31  0.047400  0.156300  0.039900 0.0 0.0 0.0 0.0 0.0 1 0.0 0.0;
    18    19  0.011190  0.049300  0.011420 0.0 0.0 0.0 0.0 0.0 1 0.0 0.0;
    19    20  0.025200  0.117000  0.029800 0.0 0.0 0.0 0.0 0.0 1 0.0 0.0;
    19    34  0.075200  0.247000  0.063200 0.0 0.0 0.0 0.0 0.0 1 0.0 0.0;
     1     2  0.030300  0.099900  0.025400 0.0 0.0 0.0 0.0 0.0 1 0.0 0.0;
     1     3  0.012900  0.042400  0.010820 0.0 0.0 0.0 0.0 0.0 1 0.0 0.0;
    20    21  0.018300  0.084900  0.021600 0.0 0.0 0.0 0.0 0.0 1 0.0 0.0;
    21    22  0.020900  0.097000  0.024600 0.0 0.0 0.0 0.0 0.0 1 0.0 0.0;
    22    23  0.034200  0.159000  0.040400 0.0 0.0 0.0 0.0 0.0 1 0.0 0.0;
    23    24  0.013500  0.049200  0.049800 0.0 0.0 0.0 0.0 0.0 1 0.0 0.0;
    23    25  0.015600  0.080000  0.086400 0.0 0.0 0.0 0.0 0.0 1 0.0 0.0;
    23    32  0.031700  0.115300  0.117300 0.0 0.0 0.0 0.0 0.0 1 0.0 0.0;
    24    70  0.002210  0.411500  0.101980 0.0 0.0 0.0 0.0 0.0 1 0.0 0.0;
    24    72  0.048800  0.196000  0.048800 0.0 0.0 0.0 0.0 0.0 1 0.0 0.0;
    25    27  0.031800  0.163000  0.176400 0.0 0.0 0.0 0.0 0.0 1 0.0 0.0;
    26    30  0.007990  0.086000  0.908000 0.0 0.0 0.0 0.0 0.0 1 0.0 0.0;
    27   115  0.016400  0.074100  0.019720 0.0 0.0 0.0 0.0 0.0 1 0.0 0.0;
    27    28  0.019130  0.085500  0.021600 0.0 0.0 0.0 0.0 0.0 1 0.0 0.0;
    27    32  0.022900  0.075500  0.019260 0.0 0.0 0.0 0.0 0.0 1 0.0 0.0;
    28    29  0.023700  0.094300  0.023800 0.0 0.0 0.0 0.0 0.0 1 0.0 0.0;
    29    31  0.010800  0.033100  0.008300 0.0 0.0 0.0 0.0 0.0 1 0.0 0.0;
     2    12  0.018700  0.061600  0.015720 0.0 0.0 0.0 0.0 0.0 1 0.0 0.0;
    30    38  0.004640  0.054000  0.422000 0.0 0.0 0.0 0.0 0.0 1 0.0 0.0;
    31    32  0.029800  0.098500  0.025100 0.0 0.0 0.0 0.0 0.0 1 0.0 0.0;
    32   113  0.061500  0.203000  0.051800 0.0 0.0 0.0 0.0 0.0 1 0.0 0.0;
    32   114  0.013500  0.061200  0.016280 0.0 0.0 0.0 0.0 0.0 1 0.0 0.0;
    33    37  0.041500  0.142000  0.036600 0.0 0.0 0.0 0.0 0.0 1 0.0 0.0;
    34    36  0.008710  0.026800  0.005680 0.0 0.0 0.0 0.0 0.0 1 0.0 0.0;
    34    37  0.002560  0.009400  0.009840 0.0 0.0 0.0 0.0 0.0 1 0.0 0.0;
    34    43  0.041300  0.168100  0.042260 0.0 0.0 0.0 0.0 0.0 1 0.0 0.0;
    35    36  0.002240  0.010200  0.002680 0.0 0.0 0.0 0.0 0.0 1 0.0 0.0;
    35    37  0.011000  0.049700  0.013180 0.0 0.0 0.0 0.0 0.0 1 0.0 0.0;
    37    39  0.032100  0.106000  0.027000 0.0 0.0 0.0 0.0 0.0 1 0.0 0.0;
    37    40  0.059300  0.168000  0.042000 0.0 0.0 0.0 0.0 0.0 1 0.0 0.0;
    38    65  0.009010  0.098600  1.046000 0.0 0.0 0.0 0.0 0.0 1 0.0 0.0;
    39    40  0.018400  0.060500  0.015520 0.0 0.0 0.0 0.0 0.0 1 0.0 0.0;
     3    12  0.048400  0.160000  0.040600 0.0 0.0 0.0 0.0 0.0 1 0.0 0.0;
     3     5  0.024100  0.108000  0.028400 0.0 0.0 0.0 0.0 0.0 1 0.0 0.0;
    40    41  0.014500  0.048700  0.012220 0.0 0.0 0.0 0.0 0.0 1 0.0 0.0;
    40    42  0.055500  0.183000  0.046600 0.0 0.0 0.0 0.0 0.0 1 0.0 0.0;
    41    42  0.041000  0.135000  0.034400 0.0 0.0 0.0 0.0 0.0 1 0.0 0.0;
    42    49  0.071500  0.323000  0.086000 0.0 0.0 0.0 0.0 0.0 1 0.0 0.0;
    43    44  0.060800  0.245400  0.060680 0.0 0.0 0.0 0.0 0.0 1 0.0 0.0;
    44    45  0.022400  0.090100  0.022400 0.0 0.0 0.0 0.0 0.0 1 0.0 0.0;
    45    46  0.040000  0.135600  0.033200 0.0 0.0 0.0 0.0 0.0 1 0.0 0.0;
    45    49  0.068400  0.186000  0.044400 0.0 0.0 0.0 0.0 0.0 1 0.0 0.0;
    46    47  0.038000  0.127000  0.031600 0.0 0.0 0.0 0.0 0.0 1 0.0 0.0;
    46    48  0.060100  0.189000  0.047200 0.0 0.0 0.0 0.0 0.0 1 0.0 0.0;
    47    49  0.019100  0.062500  0.016040 0.0 0.0 0.0 0.0 0.0 1 0.0 0.0;
    47    69  0.084400  0.277800  0.070920 0.0 0.0 0.0 0.0 0.0 1 0.0 0.0;
    48    49  0.017900  0.050500  0.012580 0.0 0.0 0.0 0.0 0.0 1 0.0 0.0;
    49    50  0.026700  0.075200  0.018740 0.0 0.0 0.0 0.0 0.0 1 0.0 0.0;
    49    51  0.048600  0.137000  0.034200 0.0 0.0 0.0 0.0 0.0 1 0.0 0.0;
    49    54  0.086900  0.291000  0.073000 0.0 0.0 0.0 0.0 0.0 1 0.0 0.0;
    49    66  0.018000  0.091900  0.024800 0.0 0.0 0.0 0.0 0.0 1 0.0 0.0;
    49    69  0.098500  0.324000  0.082800 0.0 0.0 0.0 0.0 0.0 1 0.0 0.0;
     4    11  0.020900  0.068800  0.017480 0.0 0.0 0.0 0.0 0.0 1 0.0 0.0;
     4     5  0.001760  0.007980  0.002100 0.0 0.0 0.0 0.0 0.0 1 0.0 0.0;
    50    57  0.047400  0.134000  0.033200 0.0 0.0 0.0 0.0 0.0 1 0.0 0.0;
    51    52  0.020300  0.058800  0.013960 0.0 0.0 0.0 0.0 0.0 1 0.0 0.0;
    51    58  0.025500  0.071900  0.017880 0.0 0.0 0.0 0.0 0.0 1 0.0 0.0;
    52    53  0.040500  0.163500  0.040580 0.0 0.0 0.0 0.0 0.0 1 0.0 0.0;
    53    54  0.026300  0.122000  0.031000 0.0 0.0 0.0 0.0 0.0 1 0.0 0.0;
    54    55  0.016900  0.070700  0.020200 0.0 0.0 0.0 0.0 0.0 1 0.0 0.0;
    54    56  0.002750  0.009550  0.007320 0.0 0.0 0.0 0.0 0.0 1 0.0 0.0;
    54    59  0.050300  0.229300  0.059800 0.0 0.0 0.0 0.0 0.0 1 0.0 0.0;
    55    56  0.004880  0.015100  0.003740 0.0 0.0 0.0 0.0 0.0 1 0.0 0.0;
    55    59  0.047390  0.215800  0.056460 0.0 0.0 0.0 0.0 0.0 1 0.0 0.0;
    56    57  0.034300  0.096600  0.024200 0.0 0.0 0.0 0.0 0.0 1 0.0 0.0;
    56    58  0.034300  0.096600  0.024200 0.0 0.0 0.0 0.0 0.0 1 0.0 0.0;
    56    59  0.080300  0.239000  0.053600 0.0 0.0 0.0 0.0 0.0 1 0.0 0.0;
    59    60  0.031700  0.145000  0.037600 0.0 0.0 0.0 0.0 0.0 1 0.0 0.0;
    59    61  0.032800  0.150000  0.038800 0.0 0.0 0.0 0.0 0.0 1 0.0 0.0;
     5    11  0.020300  0.068200  0.017380 0.0 0.0 0.0 0.0 0.0 1 0.0 0.0;
     5     6  0.011900  0.054000  0.014260 0.0 0.0 0.0 0.0 0.0 1 0.0 0.0;
    60    61  0.002640  0.013500  0.014560 0.0 0.0 0.0 0.0 0.0 1 0.0 0.0;
    60    62  0.012300  0.056100  0.014680 0.0 0.0 0.0 0.0 0.0 1 0.0 0.0;
    61    62  0.008240  0.037600  0.009800 0.0 0.0 0.0 0.0 0.0 1 0.0 0.0;
    62    66  0.048200  0.218000  0.057800 0.0 0.0 0.0 0.0 0.0 1 0.0 0.0;
    62    67  0.025800  0.117000  0.031000 0.0 0.0 0.0 0.0 0.0 1 0.0 0.0;
    63    64  0.001720  0.020000  0.216000 0.0 0.0 0.0 0.0 0.0 1 0.0 0.0;
    64    65  0.002690  0.030200  0.380000 0.0 0.0 0.0 0.0 0.0 1 0.0 0.0;
    65    68  0.001380  0.016000  0.638000 0.0 0.0 0.0 0.0 0.0 1 0.0 0.0;
    66    67  0.022400  0.101500  0.026820 0.0 0.0 0.0 0.0 0.0 1 0.0 0.0;
    68   116  0.000340  0.004050  0.164000 0.0 0.0 0.0 0.0 0.0 1 0.0 0.0;
    68    81  0.001750  0.020200  0.808000 0.0 0.0 0.0 0.0 0.0 1 0.0 0.0;
    69    70  0.030000  0.127000  0.122000 0.0 0.0 0.0 0.0 0.0 1 0.0 0.0;
    69    75  0.040500  0.122000  0.124000 0.0 0.0 0.0 0.0 0.0 1 0.0 0.0;
    69    77  0.030900  0.101000  0.103800 0.0 0.0 0.0 0.0 0.0 1 0.0 0.0;
     6     7  0.004590  0.020800  0.005500 0.0 0.0 0.0 0.0 0.0 1 0.0 0.0;
    70    71  0.008820  0.035500  0.008780 0.0 0.0 0.0 0.0 0.0 1 0.0 0.0;
    70    74  0.040100  0.132300  0.033680 0.0 0.0 0.0 0.0 0.0 1 0.0 0.0;
    70    75  0.042800  0.141000  0.036000 0.0 0.0 0.0 0.0 0.0 1 0.0 0.0;
    71    72  0.044600  0.180000  0.044440 0.0 0.0 0.0 0.0 0.0 1 0.0 0.0;
    71    73  0.008660  0.045400  0.011780 0.0 0.0 0.0 0.0 0.0 1 0.0 0.0;
    74    75  0.012300  0.040600  0.010340 0.0 0.0 0.0 0.0 0.0 1 0.0 0.0;
    75   118  0.014500  0.048100  0.011980 0.0 0.0 0.0 0.0 0.0 1 0.0 0.0;
    75    77  0.060100  0.199900  0.049780 0.0 0.0 0.0 0.0 0.0 1 0.0 0.0;
    76   118  0.016400  0.054400  0.013560 0.0 0.0 0.0 0.0 0.0 1 0.0 0.0;
    76    77  0.044400  0.148000  0.036800 0.0 0.0 0.0 0.0 0.0 1 0.0 0.0;
    77    78  0.003760  0.012400  0.012640 0.0 0.0 0.0 0.0 0.0 1 0.0 0.0;
    77    80  0.029400  0.105000  0.022800 0.0 0.0 0.0 0.0 0.0 1 0.0 0.0;
    77    82  0.029800  0.085300  0.081740 0.0 0.0 0.0 0.0 0.0 1 0.0 0.0;
    78    79  0.005460  0.024400  0.006480 0.0 0.0 0.0 0.0 0.0 1 0.0 0.0;
    79    80  0.015600  0.070400  0.018700 0.0 0.0 0.0 0.0 0.0 1 0.0 0.0;
     7    12  0.008620  0.034000  0.008740 0.0 0.0 0.0 0.0 0.0 1 0.0 0.0;
    80    96  0.035600  0.182000  0.049400 0.0 0.0 0.0 0.0 0.0 1 0.0 0.0;
    80    97  0.018300  0.093400  0.025400 0.0 0.0 0.0 0.0 0.0 1 0.0 0.0;
    80    98  0.023800  0.108000  0.028600 0.0 0.0 0.0 0.0 0.0 1 0.0 0.0;
    80    99  0.045400  0.206000  0.054600 0.0 0.0 0.0 0.0 0.0 1 0.0 0.0;
    82    83  0.011200  0.036650  0.037960 0.0 0.0 0.0 0.0 0.0 1 0.0 0.0;
    82    96  0.016200  0.053000  0.054400 0.0 0.0 0.0 0.0 0.0 1 0.0 0.0;
    83    84  0.062500  0.132000  0.025800 0.0 0.0 0.0 0.0 0.0 1 0.0 0.0;
    83    85  0.043000  0.148000  0.034800 0.0 0.0 0.0 0.0 0.0 1 0.0 0.0;
    84    85  0.030200  0.064100  0.012340 0.0 0.0 0.0 0.0 0.0 1 0.0 0.0;
    85    86  0.035000  0.123000  0.027600 0.0 0.0 0.0 0.0 0.0 1 0.0 0.0;
    85    88  0.020000  0.102000  0.027600 0.0 0.0 0.0 0.0 0.0 1 0.0 0.0;
    85    89  0.023900  0.173000  0.047000 0.0 0.0 0.0 0.0 0.0 1 0.0 0.0;
    86    87  0.028280  0.207400  0.044500 0.0 0.0 0.0 0.0 0.0 1 0.0 0.0;
    88    89  0.013900  0.071200  0.019340 0.0 0.0 0.0 0.0 0.0 1 0.0 0.0;
    89    90  0.023800  0.099700  0.106000 0.0 0.0 0.0 0.0 0.0 1 0.0 0.0;
    89    92  0.039300  0.158100  0.041400 0.0 0.0 0.0 0.0 0.0 1 0.0 0.0;
     8    30  0.004310  0.050400  0.514000 0.0 0.0 0.0 0.0 0.0 1 0.0 0.0;
     8     9  0.002440  0.030500  1.162000 0.0 0.0 0.0 0.0 0.0 1 0.0 0.0;
    90    91  0.025400  0.083600  0.021400 0.0 0.0 0.0 0.0 0.0 1 0.0 0.0;
    91    92  0.038700  0.127200  0.032680 0.0 0.0 0.0 0.0 0.0 1 0.0 0.0;
    92   100  0.064800  0.295000  0.047200 0.0 0.0 0.0 0.0 0.0 1 0.0 0.0;
    92   102  0.012300  0.055900  0.014640 0.0 0.0 0.0 0.0 0.0 1 0.0 0.0;
    92    93  0.025800  0.084800  0.021800 0.0 0.0 0.0 0.0 0.0 1 0.0 0.0;
    92    94  0.048100  0.158000  0.040600 0.0 0.0 0.0 0.0 0.0 1 0.0 0.0;
    93    94  0.022300  0.073200  0.018760 0.0 0.0 0.0 0.0 0.0 1 0.0 0.0;
    94   100  0.017800  0.058000  0.060400 0.0 0.0 0.0 0.0 0.0 1 0.0 0.0;
    94    95  0.013200  0.043400  0.011100 0.0 0.0 0.0 0.0 0.0 1 0.0 0.0;
    94    96  0.026900  0.086900  0.023000 0.0 0.0 0.0 0.0 0.0 1 0.0 0.0;
    95    96  0.017100  0.054700  0.014740 0.0 0.0 0.0 0.0 0.0 1 0.0 0.0;
    96    97  0.017300  0.088500  0.024000 0.0 0.0 0.0 0.0 0.0 1 0.0 0.0;
    98   100  0.039700  0.179000  0.047600 0.0 0.0 0.0 0.0 0.0 1 0.0 0.0;
    99   100  0.018000  0.081300  0.021600 0.0 0.0 0.0 0.0 0.0 1 0.0 0.0;
     9    10  0.002580  0.032200  1.230000 0.0 0.0 0.0 0.0 0.0 1 0.0 0.0;
   100   177  0.002500  0.100000 0.0  100.000  133.333  166.667 1.0 0.0 1 0.0 0.0;
   100   178  0.000917  0.041667 0.0  240.000  320.000  400.000 1.0 0.0 1 0.0 0.0;
   100   179  0.005288  0.240385 0.0   41.600   55.467   69.333 1.0 0.0 1 0.0 0.0;
   100   180  0.001375  0.062500 0.0  160.000  213.333  266.667 1.0 0.0 1 0.0 0.0;
   103   181  0.003867  0.133333 0.0   75.000  100.000  125.000 1.0 0.0 1 0.0 0.0;
   104   182  0.002174  0.086957 0.0  115.000  153.333  191.667 1.0 0.0 1 0.0 0.0;
   104   183  0.001341  0.053648 0.0  186.400  248.533  310.667 1.0 0.0 1 0.0 0.0;
   105   184  0.002174  0.086957 0.0  115.000  153.333  191.667 1.0 0.0 1 0.0 0.0;
   105   185  0.002298  0.091912 0.0  108.800  145.067  181.333 1.0 0.0 1 0.0 0.0;
   107   186  0.033333  0.666667 0.0   15.000   20.000   25.000 1.0 0.0 1 0.0 0.0;
    10   123  0.000800  0.040000 0.0  250.000  333.333  416.667 1.0 0.0 1 0.0 0.0;
   110   187  0.002174  0.086957 0.0  115.000  153.333  191.667 1.0 0.0 1 0.0 0.0;
   110   188  0.002470  0.098814 0.0  101.200  134.933  168.667 1.0 0.0 1 0.0 0.0;
   111   189  0.003867  0.133333 0.0   75.000  100.000  125.000 1.0 0.0 1 0.0 0.0;
   112   190  0.067000  1.000000 0.0   10.000   13.333   16.667 1.0 0.0 1 0.0 0.0;
   112   191  0.010276  0.153374 0.0   65.200   86.933  108.667 1.0 0.0 1 0.0 0.0;
   113   192  0.089333  1.333333 0.0    7.500   10.000   12.500 1.0 0.0 1 0.0 0.0;
   116   193  0.001000  0.045455 0.0  220.000  293.333  366.667 1.0 0.0 1 0.0 0.0;
    12   124  0.016000  0.400000 0.0   25.000   33.333   41.667 1.0 0.0 1 0.0 0.0;
    15   125  0.002174  0.086957 0.0  115.000  153.333  191.667 1.0 0.0 1 0.0 0.0;
    15   126  0.004664  0.186567 0.0   53.600   71.467   89.333 1.0 0.0 1 0.0 0.0;
    18   127  0.002174  0.086957 0.0  115.000  153.333  191.667 1.0 0.0 1 0.0 0.0;
    18   128  0.003415  0.136612 0.0   73.200   97.600  122.000 1.0 0.0 1 0.0 0.0;
    19   129  0.002174  0.086957 0.0  115.000  153.333  191.667 1.0 0.0 1 0.0 0.0;
    19   130  0.005040  0.201613 0.0   49.600   66.133   82.667 1.0 0.0 1 0.0 0.0;
     1   119  0.002174  0.086957 0.0  115.000  153.333  191.667 1.0 0.0 1 0.0 0.0;
    24   131  0.000426  0.021277 0.0  470.000  626.667  783.333 1.0 0.0 1 0.0 0.0;
    24   132  0.007692  0.384615 0.0   26.000   34.667   43.333 1.0 0.0 1 0.0 0.0;
    25   133  0.001023  0.046512 0.0  215.000  286.667  358.333 1.0 0.0 1 0.0 0.0;
    26   134  0.001634  0.065359 0.0  153.000  204.000  255.000 1.0 0.0 1 0.0 0.0;
    26    25  0.000000  0.038200 0.0  100.000  133.333  166.667 1.0 0.0 1 0.0 0.0;
    27   135  0.000444  0.022222 0.0  450.000  600.000  750.000 1.0 0.0 1 0.0 0.0;
    27   136  0.004808  0.240385 0.0   41.600   55.467   69.333 1.0 0.0 1 0.0 0.0;
    30    17  0.000000  0.038800 0.0  100.000  133.333  166.667 1.0 0.0 1 0.0 0.0;
    31   137  0.083750  1.250000 0.0    8.000   10.667   13.333 1.0 0.0 1 0.0 0.0;
    31   138  0.010806  0.161290 0.0   62.000   82.667  103.333 1.0 0.0 1 0.0 0.0;
    32   139  0.002174  0.086957 0.0  115.000  153.333  191.667 1.0 0.0 1 0.0 0.0;
    32   140  0.000833  0.033333 0.0  300.000  400.000  500.000 1.0 0.0 1 0.0 0.0;
    34   141  0.002174  0.086957 0.0  115.000  153.333  191.667 1.0 0.0 1 0.0 0.0;
    36   142  0.002174  0.086957 0.0  115.000  153.333  191.667 1.0 0.0 1 0.0 0.0;
    38    37  0.000000  0.037500 0.0  100.000  133.333  166.667 1.0 0.0 1 0.0 0.0;
    40   143  0.002174  0.086957 0.0  115.000  153.333  191.667 1.0 0.0 1 0.0 0.0;
    42   144  0.010667  0.266667 0.0   37.500   50.000   62.500 1.0 0.0 1 0.0 0.0;
    46   145  0.055833  0.833333 0.0   12.000   16.000   20.000 1.0 0.0 1 0.0 0.0;
    49   146  0.001667  0.066667 0.0  150.000  200.000  250.000 1.0 0.0 1 0.0 0.0;
     4   120  0.002174  0.086957 0.0  115.000  153.333  191.667 1.0 0.0 1 0.0 0.0;
    54   147  0.006600  0.200000 0.0   50.000   66.667   83.333 1.0 0.0 1 0.0 0.0;
    54   148  0.006600  0.200000 0.0   50.000   66.667   83.333 1.0 0.0 1 0.0 0.0;
    54   149  0.003125  0.094697 0.0  105.600  140.800  176.000 1.0 0.0 1 0.0 0.0;
    55   150  0.002174  0.086957 0.0  115.000  153.333  191.667 1.0 0.0 1 0.0 0.0;
    55   151  0.020833  0.833333 0.0   12.000   16.000   20.000 1.0 0.0 1 0.0 0.0;
    56   152  0.020000  0.500000 0.0   20.000   26.667   33.333 1.0 0.0 1 0.0 0.0;
    59   153  0.002174  0.086957 0.0  115.000  153.333  191.667 1.0 0.0 1 0.0 0.0;
    61   154  0.000917  0.041667 0.0  240.000  320.000  400.000 1.0 0.0 1 0.0 0.0;
    62   155  0.002174  0.086957 0.0  115.000  153.333  191.667 1.0 0.0 1 0.0 0.0;
    63    59  0.000000  0.038600 0.0  100.000  133.333  166.667 1.0 0.0 1 0.0 0.0;
    64    61  0.000000  0.026800 0.0  100.000  133.333  166.667 1.0 0.0 1 0.0 0.0;
    65   156  0.001000  0.045455 0.0  220.000  293.333  366.667 1.0 0.0 1 0.0 0.0;
    65    66  0.000000  0.037000 0.0  100.000  133.333  166.667 1.0 0.0 1 0.0 0.0;
    66   157  0.000917  0.041667 0.0  240.000  320.000  400.000 1.0 0.0 1 0.0 0.0;
    68    69  0.000000  0.037000 0.0  100.000  133.333  166.667 1.0 0.0 1 0.0 0.0;
    69   158  0.001419  0.064516 0.0  155.000  206.667  258.333 1.0 0.0 1 0.0 0.0;
    69   159  0.004435  0.201613 0.0   49.600   66.133   82.667 1.0 0.0 1 0.0 0.0;
     6   121  0.002174  0.086957 0.0  115.000  153.333  191.667 1.0 0.0 1 0.0 0.0;
    70   160  0.002174  0.086957 0.0  115.000  153.333  191.667 1.0 0.0 1 0.0 0.0;
    72   161  0.002174  0.086957 0.0  115.000  153.333  191.667 1.0 0.0 1 0.0 0.0;
    73   162  0.002174  0.086957 0.0  115.000  153.333  191.667 1.0 0.0 1 0.0 0.0;
    74   163  0.002174  0.086957 0.0  115.000  153.333  191.667 1.0 0.0 1 0.0 0.0;
    76   164  0.002174  0.086957 0.0  115.000  153.333  191.667 1.0 0.0 1 0.0 0.0;
    76   165  0.025000  1.000000 0.0   10.000   13.333   16.667 1.0 0.0 1 0.0 0.0;
    77   166  0.002174  0.086957 0.0  115.000  153.333  191.667 1.0 0.0 1 0.0 0.0;
    80   167  0.001333  0.060606 0.0  165.000  220.000  275.000 1.0 0.0 1 0.0 0.0;
    81    80  0.000000  0.037000 0.0  100.000  133.333  166.667 1.0 0.0 1 0.0 0.0;
    82   168  0.001580  0.071839 0.0  139.200  185.600  232.000 1.0 0.0 1 0.0 0.0;
    85   169  0.003304  0.086957 0.0  115.000  153.333  191.667 1.0 0.0 1 0.0 0.0;
    87   170  0.037333  0.666667 0.0   15.000   20.000   25.000 1.0 0.0 1 0.0 0.0;
    89   171  0.000917  0.041667 0.0  240.000  320.000  400.000 1.0 0.0 1 0.0 0.0;
     8   122  0.006600  0.200000 0.0   50.000   66.667   83.333 1.0 0.0 1 0.0 0.0;
     8     5  0.000000  0.026700 0.0  100.000  133.333  166.667 1.0 0.0 1 0.0 0.0;
    90   172  0.002174  0.086957 0.0  115.000  153.333  191.667 1.0 0.0 1 0.0 0.0;
    91   173  0.010667  0.266667 0.0   37.500   50.000   62.500 1.0 0.0 1 0.0 0.0;
    92   174  0.002174  0.086957 0.0  115.000  153.333  191.667 1.0 0.0 1 0.0 0.0;
    92   175  0.001204  0.048170 0.0  207.600  276.800  346.000 1.0 0.0 1 0.0 0.0;
    99   176  0.002174  0.086957 0.0  115.000  153.333  191.667 1.0 0.0 1 0.0 0.0;
];

%%-----  OPF Data  -----%%
%% generator cost data
%	1 startup shutdown n x1 y1 ... xn yn
%	2 startup shutdown n c(n-1) ... c0
mpc.gencost = [
  2 0 0 3 0.0000100 1.290 0.000;
  2 0 0 3 0.0000100 1.290 0.000;
  2 0 0 3 0.0000100 1.290 0.000;
  2 0 0 3 0.0000100 1.290 0.000;
  2 0 0 3 0.0000100 1.290 0.000;
  2 0 0 3 0.0000100 1.290 0.000;
  2 0 0 3 0.0000100 1.290 0.000;
  2 0 0 3 0.0000100 1.290 0.000;
  2 0 0 3 0.0000100 1.290 0.000;
  2 0 0 3 0.0000100 1.290 0.000;
  2 0 0 3 0.0000100 1.290 0.000;
  2 0 0 3 0.0000100 1.290 0.000;
  2 0 0 3 0.0000100 1.290 0.000;
  2 0 0 3 0.0000100 1.290 0.000;
  2 0 0 3 0.0000100 1.290 0.000;
  2 0 0 3 0.0000100 1.290 0.000;
  2 0 0 3 0.0000100 1.290 0.000;
  2 0 0 3 0.0000100 1.290 0.000;
  2 0 0 3 0.0000100 1.290 0.000;
  2 0 0 3 0.0000100 1.290 0.000;
  2 0 0 3 0.0000100 1.290 0.000;
  2 0 0 3 0.0000100 1.290 0.000;
  2 0 0 3 0.0000100 1.290 0.000;
  2 0 0 3 0.0000100 1.290 0.000;
  2 0 0 3 0.0000100 1.290 0.000;
  2 0 0 3 0.0000100 1.290 0.000;
  2 0 0 3 0.0000100 1.290 0.000;
  2 0 0 3 0.0000100 1.290 0.000;
  2 0 0 3 0.0000100 1.290 0.000;
  2 0 0 3 0.0000100 1.290 0.000;
  2 0 0 3 0.0000100 1.290 0.000;
  2 0 0 3 0.0000100 1.290 0.000;
  2 0 0 3 0.0000100 1.290 0.000;
  2 0 0 3 0.0000100 1.290 0.000;
  2 0 0 3 0.0000100 1.290 0.000;
  2 0 0 3 0.0000100 1.290 0.000;
  2 0 0 3 0.0000100 1.290 0.000;
  2 0 0 3 0.0000100 1.290 0.000;
  2 0 0 3 0.0000100 1.290 0.000;
  2 0 0 3 0.0000100 1.290 0.000;
  2 0 0 3 0.0000100 1.290 0.000;
  2 0 0 3 0.0000100 1.290 0.000;
  2 0 0 3 0.0000100 1.290 0.000;
  2 0 0 3 0.0000100 1.290 0.000;
  2 0 0 3 0.0000100 1.290 0.000;
  2 0 0 3 0.0000100 1.290 0.000;
  2 0 0 3 0.0000100 1.290 0.000;
  2 0 0 3 0.0000100 1.290 0.000;
  2 0 0 3 0.0000100 1.290 0.000;
  2 0 0 3 0.0000100 1.290 0.000;
  2 0 0 3 0.0000100 1.290 0.000;
  2 0 0 3 0.0000100 1.290 0.000;
  2 0 0 3 0.0000100 1.290 0.000;
  2 0 0 3 0.0000100 1.290 0.000;
  2 0 0 3 0.0000100 1.290 0.000;
  2 0 0 3 0.0000100 1.290 0.000;
  2 0 0 3 0.0000100 0.010 0.000;
  2 0 0 3 0.0000100 0.010 0.000;
  2 0 0 3 0.0000100 0.010 0.000;
  2 0 0 3 0.0000100 0.010 0.000;
  2 0 0 3 0.0000100 0.010 0.000;
  2 0 0 3 0.0000100 0.010 0.000;
  2 0 0 3 0.0000100 0.010 0.000;
  2 0 0 3 0.0000100 0.010 0.000;
  2 0 0 3 0.0000100 0.010 0.000;
  2 0 0 3 0.0000100 0.010 0.000;
  2 0 0 3 0.0000100 0.010 0.000;
  2 0 0 3 0.0000100 0.010 0.000;
  2 0 0 3 0.0000100 0.010 0.000;
  2 0 0 3 0.0000100 0.010 0.000;
  2 0 0 3 0.0000100 0.010 0.000;
  2 0 0 3 0.0000100 0.010 0.000;
  2 0 0 3 0.0000100 0.010 0.000;
  2 0 0 3 0.0000100 0.010 0.000;
  2 0 0 3 0.0000100 0.010 0.000;
];

%% generator unit type (see GENTYPES)
% use WT, PV, HY, ST, CT, ST for corresponding GENFUELS
% WT and PV will use WECC dynamics; the others will use Gov/Exc/PSS dynamics
mpc.gentype = {
  'HY';
  'HY';
  'HY';
  'HY';
  'HY';
  'HY';
  'HY';
  'HY';
  'HY';
  'HY';
  'HY';
  'HY';
  'HY';
  'HY';
  'HY';
  'HY';
  'HY';
  'HY';
  'HY';
  'HY';
  'HY';
  'HY';
  'HY';
  'HY';
  'HY';
  'HY';
  'HY';
  'HY';
  'HY';
  'HY';
  'HY';
  'HY';
  'HY';
  'HY';
  'HY';
  'HY';
  'HY';
  'HY';
  'HY';
  'HY';
  'HY';
  'HY';
  'HY';
  'HY';
  'HY';
  'HY';
  'HY';
  'HY';
  'HY';
  'HY';
  'HY';
  'HY';
  'HY';
  'HY';
  'HY';
  'HY';
  'PV';
  'PV';
  'PV';
  'PV';
  'PV';
  'PV';
  'PV';
  'PV';
  'PV';
  'PV';
  'PV';
  'PV';
  'PV';
  'PV';
  'WT';
  'WT';
  'WT';
  'WT';
  'WT';
};

%% generator fuel type (see GENFUELS); use wind, solar, hydro, nuclear, ng, coal
mpc.genfuel = {
  'hydro';
  'hydro';
  'hydro';
  'hydro';
  'hydro';
  'hydro';
  'hydro';
  'hydro';
  'hydro';
  'hydro';
  'hydro';
  'hydro';
  'hydro';
  'hydro';
  'hydro';
  'hydro';
  'hydro';
  'hydro';
  'hydro';
  'hydro';
  'hydro';
  'hydro';
  'hydro';
  'hydro';
  'hydro';
  'hydro';
  'hydro';
  'hydro';
  'hydro';
  'hydro';
  'hydro';
  'hydro';
  'hydro';
  'hydro';
  'hydro';
  'hydro';
  'hydro';
  'hydro';
  'hydro';
  'hydro';
  'hydro';
  'hydro';
  'hydro';
  'hydro';
  'hydro';
  'hydro';
  'hydro';
  'hydro';
  'hydro';
  'hydro';
  'hydro';
  'hydro';
  'hydro';
  'hydro';
  'hydro';
  'hydro';
  'solar';
  'solar';
  'solar';
  'solar';
  'solar';
  'solar';
  'solar';
  'solar';
  'solar';
  'solar';
  'solar';
  'solar';
  'solar';
  'solar';
  'wind';
  'wind';
  'wind';
  'wind';
  'wind';
};

%% bus names
mpc.bus_name = {
  '1';
  '2';
  '3';
  '4';
  '5';
  '6';
  '7';
  '8';
  '9';
  '10';
  '11';
  '12';
  '13';
  '14';
  '15';
  '16';
  '17';
  '18';
  '19';
  '20';
  '21';
  '22';
  '23';
  '24';
  '25';
  '26';
  '27';
  '28';
  '29';
  '30';
  '31';
  '32';
  '33';
  '34';
  '35';
  '36';
  '37';
  '38';
  '39';
  '40';
  '41';
  '42';
  '43';
  '44';
  '45';
  '46';
  '47';
  '48';
  '49';
  '50';
  '51';
  '52';
  '53';
  '54';
  '55';
  '56';
  '57';
  '58';
  '59';
  '60';
  '61';
  '62';
  '63';
  '64';
  '65';
  '66';
  '67';
  '68';
  '69';
  '70';
  '71';
  '72';
  '73';
  '74';
  '75';
  '76';
  '77';
  '78';
  '79';
  '80';
  '81';
  '82';
  '83';
  '84';
  '85';
  '86';
  '87';
  '88';
  '89';
  '90';
  '91';
  '92';
  '93';
  '94';
  '95';
  '96';
  '97';
  '98';
  '99';
  '100';
  '101';
  '102';
  '103';
  '104';
  '105';
  '106';
  '107';
  '108';
  '109';
  '110';
  '111';
  '112';
  '113';
  '114';
  '115';
  '116';
  '117';
  '118';
  '119';
  '120';
  '121';
  '122';
  '123';
  '124';
  '125';
  '126';
  '127';
  '128';
  '129';
  '130';
  '131';
  '132';
  '133';
  '134';
  '135';
  '136';
  '137';
  '138';
  '139';
  '140';
  '141';
  '142';
  '143';
  '144';
  '145';
  '146';
  '147';
  '148';
  '149';
  '150';
  '151';
  '152';
  '153';
  '154';
  '155';
  '156';
  '157';
  '158';
  '159';
  '160';
  '161';
  '162';
  '163';
  '164';
  '165';
  '166';
  '167';
  '168';
  '169';
  '170';
  '171';
  '172';
  '173';
  '174';
  '175';
  '176';
  '177';
  '178';
  '179';
  '180';
  '181';
  '182';
  '183';
  '184';
  '185';
  '186';
  '187';
  '188';
  '189';
  '190';
  '191';
  '192';
  '193';
};
